<additional>
  <inductionLoop id="detector_-1299026392_0" lane="-1299026392_0" pos="85.26" freq="1" file="detector_output.xml"/>
  <inductionLoop id="detector_-1299026393_0" lane="-1299026393_0" pos="18.49" freq="1" file="detector_output.xml"/>
  <inductionLoop id="detector_-1307396894#0_0" lane="-1307396894#0_0" pos="0.1" freq="1" file="detector_output.xml"/>
  <inductionLoop id="detector_-1307396894#1_0" lane="-1307396894#1_0" pos="12.11" freq="1" file="detector_output.xml"/>
  <inductionLoop id="detector_-1307396894#2_0" lane="-1307396894#2_0" pos="4.039999999999999" freq="1" file="detector_output.xml"/>
  <inductionLoop id="detector_-1307396894#3_0" lane="-1307396894#3_0" pos="0.1" freq="1" file="detector_output.xml"/>
  <inductionLoop id="detector_-1307396895#0_0" lane="-1307396895#0_0" pos="0.1900000000000004" freq="1" file="detector_output.xml"/>
  <inductionLoop id="detector_-1307396895#1_0" lane="-1307396895#1_0" pos="6.789999999999999" freq="1" file="detector_output.xml"/>
  <inductionLoop id="detector_-1307396895#2_0" lane="-1307396895#2_0" pos="5.9" freq="1" file="detector_output.xml"/>
  <inductionLoop id="detector_-1307396895#3_0" lane="-1307396895#3_0" pos="6.720000000000001" freq="1" file="detector_output.xml"/>
  <inductionLoop id="detector_-1307396895#4_0" lane="-1307396895#4_0" pos="6.32" freq="1" file="detector_output.xml"/>
  <inductionLoop id="detector_-1307396895#5_0" lane="-1307396895#5_0" pos="6.609999999999999" freq="1" file="detector_output.xml"/>
  <inductionLoop id="detector_-1307396895#6_0" lane="-1307396895#6_0" pos="5.470000000000001" freq="1" file="detector_output.xml"/>
  <inductionLoop id="detector_-1307396896#1_0" lane="-1307396896#1_0" pos="0.1" freq="1" file="detector_output.xml"/>
  <inductionLoop id="detector_-1307396896#2_0" lane="-1307396896#2_0" pos="0.1" freq="1" file="detector_output.xml"/>
  <inductionLoop id="detector_-1307396896#3_0" lane="-1307396896#3_0" pos="0.1" freq="1" file="detector_output.xml"/>
  <inductionLoop id="detector_-1307396896#5_0" lane="-1307396896#5_0" pos="0.1" freq="1" file="detector_output.xml"/>
  <inductionLoop id="detector_-1307396897_0" lane="-1307396897_0" pos="0.1" freq="1" file="detector_output.xml"/>
  <inductionLoop id="detector_-1307396898#1_0" lane="-1307396898#1_0" pos="0.1" freq="1" file="detector_output.xml"/>
  <inductionLoop id="detector_-1307396898#2_0" lane="-1307396898#2_0" pos="0.1" freq="1" file="detector_output.xml"/>
  <inductionLoop id="detector_-1307396898#4_0" lane="-1307396898#4_0" pos="0.1" freq="1" file="detector_output.xml"/>
  <inductionLoop id="detector_-359247809#0_0" lane="-359247809#0_0" pos="108.17" freq="1" file="detector_output.xml"/>
  <inductionLoop id="detector_-359247809#1_0" lane="-359247809#1_0" pos="0.1" freq="1" file="detector_output.xml"/>
  <inductionLoop id="detector_-359247809#2_0" lane="-359247809#2_0" pos="8.32" freq="1" file="detector_output.xml"/>
  <inductionLoop id="detector_-359247809#3_0" lane="-359247809#3_0" pos="24.14" freq="1" file="detector_output.xml"/>
  <inductionLoop id="detector_-359247809#4_0" lane="-359247809#4_0" pos="9.76" freq="1" file="detector_output.xml"/>
  <inductionLoop id="detector_-359247809#5_0" lane="-359247809#5_0" pos="18.47" freq="1" file="detector_output.xml"/>
  <inductionLoop id="detector_-359408298_0" lane="-359408298_0" pos="138.79" freq="1" file="detector_output.xml"/>
  <inductionLoop id="detector_-563175101#0_0" lane="-563175101#0_0" pos="43.45" freq="1" file="detector_output.xml"/>
  <inductionLoop id="detector_-563175101#1_0" lane="-563175101#1_0" pos="27.67" freq="1" file="detector_output.xml"/>
  <inductionLoop id="detector_-563175124_0" lane="-563175124_0" pos="95.83" freq="1" file="detector_output.xml"/>
  <inductionLoop id="detector_-563175129_0" lane="-563175129_0" pos="66.0" freq="1" file="detector_output.xml"/>
  <inductionLoop id="detector_-563175132_0" lane="-563175132_0" pos="5.289999999999999" freq="1" file="detector_output.xml"/>
  <inductionLoop id="detector_-563175133#0_0" lane="-563175133#0_0" pos="62.480000000000004" freq="1" file="detector_output.xml"/>
  <inductionLoop id="detector_-589113546#0_0" lane="-589113546#0_0" pos="0.1" freq="1" file="detector_output.xml"/>
  <inductionLoop id="detector_-589113546#1_0" lane="-589113546#1_0" pos="12.100000000000001" freq="1" file="detector_output.xml"/>
  <inductionLoop id="detector_-589113546#2_0" lane="-589113546#2_0" pos="4.27" freq="1" file="detector_output.xml"/>
  <inductionLoop id="detector_-589113546#3_0" lane="-589113546#3_0" pos="0.1" freq="1" file="detector_output.xml"/>
  <inductionLoop id="detector_-589113548#0_0" lane="-589113548#0_0" pos="14.14" freq="1" file="detector_output.xml"/>
  <inductionLoop id="detector_-589113548#1_0" lane="-589113548#1_0" pos="8.63" freq="1" file="detector_output.xml"/>
  <inductionLoop id="detector_-589113548#2_0" lane="-589113548#2_0" pos="4.210000000000001" freq="1" file="detector_output.xml"/>
  <inductionLoop id="detector_-589113548#3_0" lane="-589113548#3_0" pos="3.369999999999999" freq="1" file="detector_output.xml"/>
  <inductionLoop id="detector_-589113550#0_0" lane="-589113550#0_0" pos="8.96" freq="1" file="detector_output.xml"/>
  <inductionLoop id="detector_-589113550#1_0" lane="-589113550#1_0" pos="12.29" freq="1" file="detector_output.xml"/>
  <inductionLoop id="detector_-589113550#2_0" lane="-589113550#2_0" pos="4.140000000000001" freq="1" file="detector_output.xml"/>
  <inductionLoop id="detector_-589113550#3_0" lane="-589113550#3_0" pos="1.9000000000000004" freq="1" file="detector_output.xml"/>
  <inductionLoop id="detector_-589113551#0_0" lane="-589113551#0_0" pos="3.25" freq="1" file="detector_output.xml"/>
  <inductionLoop id="detector_-589113551#1_0" lane="-589113551#1_0" pos="12.059999999999999" freq="1" file="detector_output.xml"/>
  <inductionLoop id="detector_-589113551#2_0" lane="-589113551#2_0" pos="4.17" freq="1" file="detector_output.xml"/>
  <inductionLoop id="detector_-589113551#3_0" lane="-589113551#3_0" pos="0.1" freq="1" file="detector_output.xml"/>
  <inductionLoop id="detector_-589113553#1_0" lane="-589113553#1_0" pos="0.1" freq="1" file="detector_output.xml"/>
  <inductionLoop id="detector_-589113553#2_0" lane="-589113553#2_0" pos="0.1" freq="1" file="detector_output.xml"/>
  <inductionLoop id="detector_-589113553#4_0" lane="-589113553#4_0" pos="0.1" freq="1" file="detector_output.xml"/>
  <inductionLoop id="detector_-589113555#0_0" lane="-589113555#0_0" pos="13.45" freq="1" file="detector_output.xml"/>
  <inductionLoop id="detector_-589113555#2_0" lane="-589113555#2_0" pos="8.6" freq="1" file="detector_output.xml"/>
  <inductionLoop id="detector_-589113555#3_0" lane="-589113555#3_0" pos="4.1899999999999995" freq="1" file="detector_output.xml"/>
  <inductionLoop id="detector_-605918120_0" lane="-605918120_0" pos="50.04" freq="1" file="detector_output.xml"/>
  <inductionLoop id="detector_-605918129_0" lane="-605918129_0" pos="49.51" freq="1" file="detector_output.xml"/>
  <inductionLoop id="detector_-605918130_0" lane="-605918130_0" pos="11.29" freq="1" file="detector_output.xml"/>
  <inductionLoop id="detector_-605918134_0" lane="-605918134_0" pos="24.6" freq="1" file="detector_output.xml"/>
  <inductionLoop id="detector_-674400438_0" lane="-674400438_0" pos="0.1" freq="1" file="detector_output.xml"/>
  <inductionLoop id="detector_-674400439_0" lane="-674400439_0" pos="90.9" freq="1" file="detector_output.xml"/>
  <inductionLoop id="detector_-674400440#2_0" lane="-674400440#2_0" pos="23.51" freq="1" file="detector_output.xml"/>
  <inductionLoop id="detector_-674400440#3_0" lane="-674400440#3_0" pos="36.45" freq="1" file="detector_output.xml"/>
  <inductionLoop id="detector_-674400440#4_0" lane="-674400440#4_0" pos="19.89" freq="1" file="detector_output.xml"/>
  <inductionLoop id="detector_-674400440#5_0" lane="-674400440#5_0" pos="12.36" freq="1" file="detector_output.xml"/>
  <inductionLoop id="detector_-674400442#0_0" lane="-674400442#0_0" pos="1.96" freq="1" file="detector_output.xml"/>
  <inductionLoop id="detector_-694939821_0" lane="-694939821_0" pos="14.07" freq="1" file="detector_output.xml"/>
  <inductionLoop id="detector_-762926800_0" lane="-762926800_0" pos="2.08" freq="1" file="detector_output.xml"/>
  <inductionLoop id="detector_-762926801_0" lane="-762926801_0" pos="2.59" freq="1" file="detector_output.xml"/>
  <inductionLoop id="detector_-784098496_0" lane="-784098496_0" pos="31.909999999999997" freq="1" file="detector_output.xml"/>
  <inductionLoop id="detector_-784098497#0_0" lane="-784098497#0_0" pos="3.789999999999999" freq="1" file="detector_output.xml"/>
  <inductionLoop id="detector_-784098497#1_0" lane="-784098497#1_0" pos="0.1" freq="1" file="detector_output.xml"/>
  <inductionLoop id="detector_-784098497#2_0" lane="-784098497#2_0" pos="0.1" freq="1" file="detector_output.xml"/>
  <inductionLoop id="detector_-784098498_0" lane="-784098498_0" pos="0.5800000000000001" freq="1" file="detector_output.xml"/>
  <inductionLoop id="detector_-784098499#0_0" lane="-784098499#0_0" pos="145.29" freq="1" file="detector_output.xml"/>
  <inductionLoop id="detector_-784098499#1_0" lane="-784098499#1_0" pos="205.57" freq="1" file="detector_output.xml"/>
  <inductionLoop id="detector_-784098499#2_0" lane="-784098499#2_0" pos="0.1" freq="1" file="detector_output.xml"/>
  <inductionLoop id="detector_-784098500_0" lane="-784098500_0" pos="0.1" freq="1" file="detector_output.xml"/>
  <inductionLoop id="detector_-784098501_0" lane="-784098501_0" pos="55.19" freq="1" file="detector_output.xml"/>
  <inductionLoop id="detector_-784098507#0_0" lane="-784098507#0_0" pos="30.729999999999997" freq="1" file="detector_output.xml"/>
  <inductionLoop id="detector_-784098507#1_0" lane="-784098507#1_0" pos="23.95" freq="1" file="detector_output.xml"/>
  <inductionLoop id="detector_-802892314#0_0" lane="-802892314#0_0" pos="15.399999999999999" freq="1" file="detector_output.xml"/>
  <inductionLoop id="detector_-802892314#1_0" lane="-802892314#1_0" pos="0.1" freq="1" file="detector_output.xml"/>
  <inductionLoop id="detector_-802892314#2_0" lane="-802892314#2_0" pos="0.1" freq="1" file="detector_output.xml"/>
  <inductionLoop id="detector_-802892314#4_0" lane="-802892314#4_0" pos="0.1" freq="1" file="detector_output.xml"/>
  <inductionLoop id="detector_-802892314#5_0" lane="-802892314#5_0" pos="6.51" freq="1" file="detector_output.xml"/>
  <inductionLoop id="detector_-822095302_0" lane="-822095302_0" pos="64.39" freq="1" file="detector_output.xml"/>
  <inductionLoop id="detector_-972478140_0" lane="-972478140_0" pos="3.25" freq="1" file="detector_output.xml"/>
  <inductionLoop id="detector_1053267667#0_0" lane="1053267667#0_0" pos="22.41" freq="1" file="detector_output.xml"/>
  <inductionLoop id="detector_1053267667#0_1" lane="1053267667#0_1" pos="22.41" freq="1" file="detector_output.xml"/>
  <inductionLoop id="detector_1053267667#0_2" lane="1053267667#0_2" pos="22.41" freq="1" file="detector_output.xml"/>
  <inductionLoop id="detector_1053267667#1_0" lane="1053267667#1_0" pos="32.88" freq="1" file="detector_output.xml"/>
  <inductionLoop id="detector_1053267667#1_1" lane="1053267667#1_1" pos="32.88" freq="1" file="detector_output.xml"/>
  <inductionLoop id="detector_1053267667#1_2" lane="1053267667#1_2" pos="32.88" freq="1" file="detector_output.xml"/>
  <inductionLoop id="detector_1053267667#2_0" lane="1053267667#2_0" pos="25.51" freq="1" file="detector_output.xml"/>
  <inductionLoop id="detector_1053267667#2_1" lane="1053267667#2_1" pos="25.51" freq="1" file="detector_output.xml"/>
  <inductionLoop id="detector_1053267667#2_2" lane="1053267667#2_2" pos="25.51" freq="1" file="detector_output.xml"/>
  <inductionLoop id="detector_1053267667#3_0" lane="1053267667#3_0" pos="76.52" freq="1" file="detector_output.xml"/>
  <inductionLoop id="detector_1053267667#3_1" lane="1053267667#3_1" pos="76.52" freq="1" file="detector_output.xml"/>
  <inductionLoop id="detector_1053267667#3_2" lane="1053267667#3_2" pos="76.52" freq="1" file="detector_output.xml"/>
  <inductionLoop id="detector_1169694549_0" lane="1169694549_0" pos="24.49" freq="1" file="detector_output.xml"/>
  <inductionLoop id="detector_1169694550_0" lane="1169694550_0" pos="26.79" freq="1" file="detector_output.xml"/>
  <inductionLoop id="detector_1299026391_0" lane="1299026391_0" pos="84.01" freq="1" file="detector_output.xml"/>
  <inductionLoop id="detector_1299026392_0" lane="1299026392_0" pos="85.82" freq="1" file="detector_output.xml"/>
  <inductionLoop id="detector_1299026393_0" lane="1299026393_0" pos="20.57" freq="1" file="detector_output.xml"/>
  <inductionLoop id="detector_1299026394_0" lane="1299026394_0" pos="86.53" freq="1" file="detector_output.xml"/>
  <inductionLoop id="detector_1307396894#0_0" lane="1307396894#0_0" pos="0.1" freq="1" file="detector_output.xml"/>
  <inductionLoop id="detector_1307396894#1_0" lane="1307396894#1_0" pos="12.129999999999999" freq="1" file="detector_output.xml"/>
  <inductionLoop id="detector_1307396894#2_0" lane="1307396894#2_0" pos="4.039999999999999" freq="1" file="detector_output.xml"/>
  <inductionLoop id="detector_1307396894#3_0" lane="1307396894#3_0" pos="0.1" freq="1" file="detector_output.xml"/>
  <inductionLoop id="detector_1307396895#0_0" lane="1307396895#0_0" pos="0.1900000000000004" freq="1" file="detector_output.xml"/>
  <inductionLoop id="detector_1307396895#1_0" lane="1307396895#1_0" pos="6.789999999999999" freq="1" file="detector_output.xml"/>
  <inductionLoop id="detector_1307396895#2_0" lane="1307396895#2_0" pos="5.9" freq="1" file="detector_output.xml"/>
  <inductionLoop id="detector_1307396895#3_0" lane="1307396895#3_0" pos="6.720000000000001" freq="1" file="detector_output.xml"/>
  <inductionLoop id="detector_1307396895#4_0" lane="1307396895#4_0" pos="6.32" freq="1" file="detector_output.xml"/>
  <inductionLoop id="detector_1307396895#5_0" lane="1307396895#5_0" pos="6.609999999999999" freq="1" file="detector_output.xml"/>
  <inductionLoop id="detector_1307396895#6_0" lane="1307396895#6_0" pos="5.470000000000001" freq="1" file="detector_output.xml"/>
  <inductionLoop id="detector_1307396896#1_0" lane="1307396896#1_0" pos="0.1" freq="1" file="detector_output.xml"/>
  <inductionLoop id="detector_1307396896#2_0" lane="1307396896#2_0" pos="0.1" freq="1" file="detector_output.xml"/>
  <inductionLoop id="detector_1307396896#3_0" lane="1307396896#3_0" pos="0.1" freq="1" file="detector_output.xml"/>
  <inductionLoop id="detector_1307396896#5_0" lane="1307396896#5_0" pos="0.1" freq="1" file="detector_output.xml"/>
  <inductionLoop id="detector_1307396897_0" lane="1307396897_0" pos="0.1" freq="1" file="detector_output.xml"/>
  <inductionLoop id="detector_1307396898#1_0" lane="1307396898#1_0" pos="0.1" freq="1" file="detector_output.xml"/>
  <inductionLoop id="detector_1307396898#2_0" lane="1307396898#2_0" pos="0.1" freq="1" file="detector_output.xml"/>
  <inductionLoop id="detector_1307396898#4_0" lane="1307396898#4_0" pos="0.1" freq="1" file="detector_output.xml"/>
  <inductionLoop id="detector_1307396898#5_0" lane="1307396898#5_0" pos="16.2" freq="1" file="detector_output.xml"/>
  <inductionLoop id="detector_1367431786#0_0" lane="1367431786#0_0" pos="6.35" freq="1" file="detector_output.xml"/>
  <inductionLoop id="detector_1367431786#1_0" lane="1367431786#1_0" pos="24.52" freq="1" file="detector_output.xml"/>
  <inductionLoop id="detector_1367431787_0" lane="1367431787_0" pos="131.96" freq="1" file="detector_output.xml"/>
  <inductionLoop id="detector_359247809#0_0" lane="359247809#0_0" pos="108.6" freq="1" file="detector_output.xml"/>
  <inductionLoop id="detector_359247809#1_0" lane="359247809#1_0" pos="0.1" freq="1" file="detector_output.xml"/>
  <inductionLoop id="detector_359247809#2_0" lane="359247809#2_0" pos="8.6" freq="1" file="detector_output.xml"/>
  <inductionLoop id="detector_359247809#3_0" lane="359247809#3_0" pos="24.14" freq="1" file="detector_output.xml"/>
  <inductionLoop id="detector_359247809#4_0" lane="359247809#4_0" pos="9.76" freq="1" file="detector_output.xml"/>
  <inductionLoop id="detector_359247809#5_0" lane="359247809#5_0" pos="18.47" freq="1" file="detector_output.xml"/>
  <inductionLoop id="detector_359408278_0" lane="359408278_0" pos="294.21" freq="1" file="detector_output.xml"/>
  <inductionLoop id="detector_359408298_0" lane="359408298_0" pos="143.23" freq="1" file="detector_output.xml"/>
  <inductionLoop id="detector_359408305_0" lane="359408305_0" pos="297.8" freq="1" file="detector_output.xml"/>
  <inductionLoop id="detector_362347492_0" lane="362347492_0" pos="126.78" freq="1" file="detector_output.xml"/>
  <inductionLoop id="detector_362347492_1" lane="362347492_1" pos="126.78" freq="1" file="detector_output.xml"/>
  <inductionLoop id="detector_362347492_2" lane="362347492_2" pos="126.78" freq="1" file="detector_output.xml"/>
  <inductionLoop id="detector_563175101#1_0" lane="563175101#1_0" pos="27.67" freq="1" file="detector_output.xml"/>
  <inductionLoop id="detector_563175129_0" lane="563175129_0" pos="67.76" freq="1" file="detector_output.xml"/>
  <inductionLoop id="detector_563175132_0" lane="563175132_0" pos="5.289999999999999" freq="1" file="detector_output.xml"/>
  <inductionLoop id="detector_563175133#0_0" lane="563175133#0_0" pos="61.519999999999996" freq="1" file="detector_output.xml"/>
  <inductionLoop id="detector_563175133#1_0" lane="563175133#1_0" pos="81.93" freq="1" file="detector_output.xml"/>
  <inductionLoop id="detector_563175134_0" lane="563175134_0" pos="144.62" freq="1" file="detector_output.xml"/>
  <inductionLoop id="detector_563175135#0_0" lane="563175135#0_0" pos="50.64" freq="1" file="detector_output.xml"/>
  <inductionLoop id="detector_563175135#1_0" lane="563175135#1_0" pos="77.37" freq="1" file="detector_output.xml"/>
  <inductionLoop id="detector_563175146#1_0" lane="563175146#1_0" pos="223.9" freq="1" file="detector_output.xml"/>
  <inductionLoop id="detector_563175146#1_1" lane="563175146#1_1" pos="223.9" freq="1" file="detector_output.xml"/>
  <inductionLoop id="detector_563175146#1_2" lane="563175146#1_2" pos="223.9" freq="1" file="detector_output.xml"/>
  <inductionLoop id="detector_589105297_0" lane="589105297_0" pos="68.05" freq="1" file="detector_output.xml"/>
  <inductionLoop id="detector_589105298_0" lane="589105298_0" pos="51.72" freq="1" file="detector_output.xml"/>
  <inductionLoop id="detector_589105299_0" lane="589105299_0" pos="50.72" freq="1" file="detector_output.xml"/>
  <inductionLoop id="detector_589105300_0" lane="589105300_0" pos="89.99" freq="1" file="detector_output.xml"/>
  <inductionLoop id="detector_589105301_0" lane="589105301_0" pos="48.71" freq="1" file="detector_output.xml"/>
  <inductionLoop id="detector_589105302#0_0" lane="589105302#0_0" pos="64.09" freq="1" file="detector_output.xml"/>
  <inductionLoop id="detector_589105302#1_0" lane="589105302#1_0" pos="5.710000000000001" freq="1" file="detector_output.xml"/>
  <inductionLoop id="detector_589105302#2_0" lane="589105302#2_0" pos="6.880000000000001" freq="1" file="detector_output.xml"/>
  <inductionLoop id="detector_589105302#3_0" lane="589105302#3_0" pos="6.5" freq="1" file="detector_output.xml"/>
  <inductionLoop id="detector_589105305#0_0" lane="589105305#0_0" pos="5.73" freq="1" file="detector_output.xml"/>
  <inductionLoop id="detector_589105305#1_0" lane="589105305#1_0" pos="49.85" freq="1" file="detector_output.xml"/>
  <inductionLoop id="detector_589105306_0" lane="589105306_0" pos="74.31" freq="1" file="detector_output.xml"/>
  <inductionLoop id="detector_589105307#0_0" lane="589105307#0_0" pos="74.34" freq="1" file="detector_output.xml"/>
  <inductionLoop id="detector_589105307#1_0" lane="589105307#1_0" pos="50.2" freq="1" file="detector_output.xml"/>
  <inductionLoop id="detector_589105307#2_0" lane="589105307#2_0" pos="6.67" freq="1" file="detector_output.xml"/>
  <inductionLoop id="detector_589105308_0" lane="589105308_0" pos="134.33" freq="1" file="detector_output.xml"/>
  <inductionLoop id="detector_589113546#0_0" lane="589113546#0_0" pos="0.1" freq="1" file="detector_output.xml"/>
  <inductionLoop id="detector_589113546#1_0" lane="589113546#1_0" pos="12.100000000000001" freq="1" file="detector_output.xml"/>
  <inductionLoop id="detector_589113546#2_0" lane="589113546#2_0" pos="4.25" freq="1" file="detector_output.xml"/>
  <inductionLoop id="detector_589113546#3_0" lane="589113546#3_0" pos="0.1" freq="1" file="detector_output.xml"/>
  <inductionLoop id="detector_589113548#0_0" lane="589113548#0_0" pos="14.149999999999999" freq="1" file="detector_output.xml"/>
  <inductionLoop id="detector_589113548#1_0" lane="589113548#1_0" pos="8.64" freq="1" file="detector_output.xml"/>
  <inductionLoop id="detector_589113548#2_0" lane="589113548#2_0" pos="4.220000000000001" freq="1" file="detector_output.xml"/>
  <inductionLoop id="detector_589113548#3_0" lane="589113548#3_0" pos="3.369999999999999" freq="1" file="detector_output.xml"/>
  <inductionLoop id="detector_589113550#0_0" lane="589113550#0_0" pos="8.96" freq="1" file="detector_output.xml"/>
  <inductionLoop id="detector_589113550#1_0" lane="589113550#1_0" pos="12.29" freq="1" file="detector_output.xml"/>
  <inductionLoop id="detector_589113550#2_0" lane="589113550#2_0" pos="4.140000000000001" freq="1" file="detector_output.xml"/>
  <inductionLoop id="detector_589113550#3_0" lane="589113550#3_0" pos="1.9000000000000004" freq="1" file="detector_output.xml"/>
  <inductionLoop id="detector_589113551#0_0" lane="589113551#0_0" pos="3.25" freq="1" file="detector_output.xml"/>
  <inductionLoop id="detector_589113551#1_0" lane="589113551#1_0" pos="12.079999999999998" freq="1" file="detector_output.xml"/>
  <inductionLoop id="detector_589113551#2_0" lane="589113551#2_0" pos="4.1899999999999995" freq="1" file="detector_output.xml"/>
  <inductionLoop id="detector_589113551#3_0" lane="589113551#3_0" pos="0.1" freq="1" file="detector_output.xml"/>
  <inductionLoop id="detector_589113553#1_0" lane="589113553#1_0" pos="0.1" freq="1" file="detector_output.xml"/>
  <inductionLoop id="detector_589113553#2_0" lane="589113553#2_0" pos="0.1" freq="1" file="detector_output.xml"/>
  <inductionLoop id="detector_589113553#4_0" lane="589113553#4_0" pos="0.1" freq="1" file="detector_output.xml"/>
  <inductionLoop id="detector_589113555#0_0" lane="589113555#0_0" pos="13.45" freq="1" file="detector_output.xml"/>
  <inductionLoop id="detector_589113555#2_0" lane="589113555#2_0" pos="8.61" freq="1" file="detector_output.xml"/>
  <inductionLoop id="detector_589113555#3_0" lane="589113555#3_0" pos="4.1899999999999995" freq="1" file="detector_output.xml"/>
  <inductionLoop id="detector_589113555#4_0" lane="589113555#4_0" pos="9.63" freq="1" file="detector_output.xml"/>
  <inductionLoop id="detector_589113560#0_0" lane="589113560#0_0" pos="6.91" freq="1" file="detector_output.xml"/>
  <inductionLoop id="detector_589113560#1_0" lane="589113560#1_0" pos="6.02" freq="1" file="detector_output.xml"/>
  <inductionLoop id="detector_589113565#0_0" lane="589113565#0_0" pos="69.56" freq="1" file="detector_output.xml"/>
  <inductionLoop id="detector_589113565#1_0" lane="589113565#1_0" pos="78.21" freq="1" file="detector_output.xml"/>
  <inductionLoop id="detector_589113565#2_0" lane="589113565#2_0" pos="65.49" freq="1" file="detector_output.xml"/>
  <inductionLoop id="detector_605918123_0" lane="605918123_0" pos="7.890000000000001" freq="1" file="detector_output.xml"/>
  <inductionLoop id="detector_605918129_0" lane="605918129_0" pos="46.1" freq="1" file="detector_output.xml"/>
  <inductionLoop id="detector_605918130_0" lane="605918130_0" pos="11.3" freq="1" file="detector_output.xml"/>
  <inductionLoop id="detector_605918134_0" lane="605918134_0" pos="26.16" freq="1" file="detector_output.xml"/>
  <inductionLoop id="detector_605918135#0_0" lane="605918135#0_0" pos="0.9100000000000001" freq="1" file="detector_output.xml"/>
  <inductionLoop id="detector_605918135#1_0" lane="605918135#1_0" pos="0.1" freq="1" file="detector_output.xml"/>
  <inductionLoop id="detector_625549152_0" lane="625549152_0" pos="53.79" freq="1" file="detector_output.xml"/>
  <inductionLoop id="detector_674400438_0" lane="674400438_0" pos="0.1" freq="1" file="detector_output.xml"/>
  <inductionLoop id="detector_674400439_0" lane="674400439_0" pos="102.53" freq="1" file="detector_output.xml"/>
  <inductionLoop id="detector_674400440#2_0" lane="674400440#2_0" pos="18.8" freq="1" file="detector_output.xml"/>
  <inductionLoop id="detector_674400440#3_0" lane="674400440#3_0" pos="29.47" freq="1" file="detector_output.xml"/>
  <inductionLoop id="detector_674400440#4_0" lane="674400440#4_0" pos="16.3" freq="1" file="detector_output.xml"/>
  <inductionLoop id="detector_674400440#5_0" lane="674400440#5_0" pos="13.260000000000002" freq="1" file="detector_output.xml"/>
  <inductionLoop id="detector_674400442#0_0" lane="674400442#0_0" pos="1.96" freq="1" file="detector_output.xml"/>
  <inductionLoop id="detector_674400446_0" lane="674400446_0" pos="52.51" freq="1" file="detector_output.xml"/>
  <inductionLoop id="detector_685249083_0" lane="685249083_0" pos="10.86" freq="1" file="detector_output.xml"/>
  <inductionLoop id="detector_685249084_0" lane="685249084_0" pos="0.1" freq="1" file="detector_output.xml"/>
  <inductionLoop id="detector_685249086#1_0" lane="685249086#1_0" pos="4.289999999999999" freq="1" file="detector_output.xml"/>
  <inductionLoop id="detector_694939821_0" lane="694939821_0" pos="13.34" freq="1" file="detector_output.xml"/>
  <inductionLoop id="detector_749313693_0" lane="749313693_0" pos="99.22" freq="1" file="detector_output.xml"/>
  <inductionLoop id="detector_749313693_1" lane="749313693_1" pos="99.22" freq="1" file="detector_output.xml"/>
  <inductionLoop id="detector_749313693_2" lane="749313693_2" pos="99.22" freq="1" file="detector_output.xml"/>
  <inductionLoop id="detector_749662139_0" lane="749662139_0" pos="7.539999999999999" freq="1" file="detector_output.xml"/>
  <inductionLoop id="detector_749662139_1" lane="749662139_1" pos="7.539999999999999" freq="1" file="detector_output.xml"/>
  <inductionLoop id="detector_749662139_2" lane="749662139_2" pos="7.539999999999999" freq="1" file="detector_output.xml"/>
  <inductionLoop id="detector_749662139_3" lane="749662139_3" pos="7.539999999999999" freq="1" file="detector_output.xml"/>
  <inductionLoop id="detector_749662140#0_0" lane="749662140#0_0" pos="36.64" freq="1" file="detector_output.xml"/>
  <inductionLoop id="detector_749662140#0_1" lane="749662140#0_1" pos="36.64" freq="1" file="detector_output.xml"/>
  <inductionLoop id="detector_749662140#0_2" lane="749662140#0_2" pos="36.64" freq="1" file="detector_output.xml"/>
  <inductionLoop id="detector_749662140#0_3" lane="749662140#0_3" pos="36.64" freq="1" file="detector_output.xml"/>
  <inductionLoop id="detector_749988360#0_0" lane="749988360#0_0" pos="5.1899999999999995" freq="1" file="detector_output.xml"/>
  <inductionLoop id="detector_749988360#0_1" lane="749988360#0_1" pos="5.1899999999999995" freq="1" file="detector_output.xml"/>
  <inductionLoop id="detector_749988360#0_2" lane="749988360#0_2" pos="5.1899999999999995" freq="1" file="detector_output.xml"/>
  <inductionLoop id="detector_749988360#2_0" lane="749988360#2_0" pos="58.94" freq="1" file="detector_output.xml"/>
  <inductionLoop id="detector_749988360#2_1" lane="749988360#2_1" pos="58.94" freq="1" file="detector_output.xml"/>
  <inductionLoop id="detector_749988360#2_2" lane="749988360#2_2" pos="58.94" freq="1" file="detector_output.xml"/>
  <inductionLoop id="detector_749988360#3_0" lane="749988360#3_0" pos="0.1" freq="1" file="detector_output.xml"/>
  <inductionLoop id="detector_749988360#3_1" lane="749988360#3_1" pos="0.1" freq="1" file="detector_output.xml"/>
  <inductionLoop id="detector_749988360#3_2" lane="749988360#3_2" pos="0.1" freq="1" file="detector_output.xml"/>
  <inductionLoop id="detector_754598165#2_0" lane="754598165#2_0" pos="5.199999999999999" freq="1" file="detector_output.xml"/>
  <inductionLoop id="detector_754598165#2_1" lane="754598165#2_1" pos="5.199999999999999" freq="1" file="detector_output.xml"/>
  <inductionLoop id="detector_754598165#2_2" lane="754598165#2_2" pos="5.199999999999999" freq="1" file="detector_output.xml"/>
  <inductionLoop id="detector_757091805#1_0" lane="757091805#1_0" pos="0.1" freq="1" file="detector_output.xml"/>
  <inductionLoop id="detector_757091805#1_1" lane="757091805#1_1" pos="0.1" freq="1" file="detector_output.xml"/>
  <inductionLoop id="detector_757091805#1_2" lane="757091805#1_2" pos="0.1" freq="1" file="detector_output.xml"/>
  <inductionLoop id="detector_757092063_0" lane="757092063_0" pos="42.16" freq="1" file="detector_output.xml"/>
  <inductionLoop id="detector_757092063_1" lane="757092063_1" pos="42.16" freq="1" file="detector_output.xml"/>
  <inductionLoop id="detector_757092063_2" lane="757092063_2" pos="42.16" freq="1" file="detector_output.xml"/>
  <inductionLoop id="detector_757092063_3" lane="757092063_3" pos="42.16" freq="1" file="detector_output.xml"/>
  <inductionLoop id="detector_757092063_4" lane="757092063_4" pos="42.16" freq="1" file="detector_output.xml"/>
  <inductionLoop id="detector_757092064#1_0" lane="757092064#1_0" pos="13.09" freq="1" file="detector_output.xml"/>
  <inductionLoop id="detector_757092064#1_1" lane="757092064#1_1" pos="13.09" freq="1" file="detector_output.xml"/>
  <inductionLoop id="detector_757092064#1_2" lane="757092064#1_2" pos="13.09" freq="1" file="detector_output.xml"/>
  <inductionLoop id="detector_757092065_0" lane="757092065_0" pos="41.31" freq="1" file="detector_output.xml"/>
  <inductionLoop id="detector_757092065_1" lane="757092065_1" pos="41.31" freq="1" file="detector_output.xml"/>
  <inductionLoop id="detector_757373594_0" lane="757373594_0" pos="20.52" freq="1" file="detector_output.xml"/>