<?xml version="1.0" encoding="UTF-8"?>

<!-- generated on 2025-03-20 22:03:36 by Eclipse SUMO netedit Version 1.22.0
<neteditConfiguration xmlns:xsi="http://www.w3.org/2001/XMLSchema-instance" xsi:noNamespaceSchemaLocation="http://sumo.dlr.de/xsd/neteditConfiguration.xsd">

    <input>
        <sumocfg-file value="C:\Users\LENOVO\Sumo\2025-03-20-21-49-45\osm.sumocfg"/>
        <additional-files value="C:\Users\LENOVO\Sumo\2025-03-20-21-49-45\osm.poly.xml.gz"/>
        <route-files value="C:\Users\LENOVO\Sumo\2025-03-20-21-49-45\osm_pt.rou.xml,C:\Users\LENOVO\Sumo\2025-03-20-21-49-45\osm.passenger.trips.xml"/>
        <sumo-net-file value="C:\Users\LENOVO\Sumo\2025-03-20-21-49-45\osm.net.xml"/>
    </input>

    <output>
        <output-file value="C:\Users\LENOVO\Sumo\2025-03-20-21-49-45\osm.net.xml"/>
        <output.street-names value="true"/>
    </output>

    <processing>
        <geometry.min-radius.fix.railways value="false"/>
        <geometry.max-grade.fix value="false"/>
        <offset.disable-normalization value="true"/>
        <lefthand value="1"/>
    </processing>

    <junctions>
        <no-turnarounds value="true"/>
        <junctions.corner-detail value="5"/>
        <junctions.limit-turn-speed value="5.50"/>
        <rectangular-lane-cut value="0"/>
    </junctions>

    <pedestrian>
        <walkingareas value="0"/>
    </pedestrian>

    <netedit>
        <ignore.routeelements value="false"/>
    </netedit>

</neteditConfiguration>
-->

<net version="1.20" junctionCornerDetail="5" lefthand="true" limitTurnSpeed="5.50" xmlns:xsi="http://www.w3.org/2001/XMLSchema-instance" xsi:noNamespaceSchemaLocation="http://sumo.dlr.de/xsd/net_file.xsd">

    <location netOffset="-11870870.20,702820.41" convBoundary="0.00,0.00,650.15,415.97" origBoundary="106.637841,-6.300805,106.643682,-6.297091" projParameter="+proj=merc +a=6378137 +b=6378137 +lat_ts=0.0 +lon_0=0.0 +x_0=0.0 +y_0=0 +k=1.0 +units=m +nadgrids=@null +wktext +no_defs"/>

    <type id="highway.footway" priority="1" numLanes="1" speed="2.78" allow="pedestrian" oneway="1" width="2.00"/>
    <type id="highway.path" priority="1" numLanes="1" speed="5.56" allow="pedestrian bicycle" oneway="0" width="2.00"/>
    <type id="highway.pedestrian" priority="1" numLanes="1" speed="2.78" allow="pedestrian" oneway="1" width="2.00"/>
    <type id="highway.primary" priority="12" numLanes="2" speed="27.78" disallow="tram rail_urban rail rail_electric rail_fast ship container cable_car subway aircraft wheelchair scooter drone" oneway="0"/>
    <type id="highway.primary_link" priority="7" numLanes="1" speed="22.22" disallow="tram rail_urban rail rail_electric rail_fast ship container cable_car subway aircraft wheelchair scooter drone" oneway="0"/>
    <type id="highway.residential" priority="3" numLanes="1" speed="13.89" disallow="tram rail_urban rail rail_electric rail_fast ship container cable_car subway aircraft wheelchair scooter drone" oneway="0"/>
    <type id="highway.secondary" priority="11" numLanes="1" speed="27.78" disallow="tram rail_urban rail rail_electric rail_fast ship container cable_car subway aircraft wheelchair scooter drone" oneway="0"/>
    <type id="highway.service" priority="1" numLanes="1" speed="5.56" allow="pedestrian delivery bicycle" oneway="0"/>
    <type id="highway.tertiary" priority="10" numLanes="1" speed="22.22" disallow="tram rail_urban rail rail_electric rail_fast ship container cable_car subway aircraft wheelchair scooter drone" oneway="0"/>

    <edge id=":10876193171_0" function="internal">
        <lane id=":10876193171_0_0" index="0" allow="pedestrian delivery bicycle" speed="5.56" length="6.31" shape="644.21,17.41 644.63,11.11"/>
    </edge>
    <edge id=":10876193171_1" function="internal">
        <lane id=":10876193171_1_0" index="0" allow="pedestrian delivery bicycle" speed="4.98" length="5.07" shape="641.34,14.02 642.74,13.95 643.76,13.44 644.39,12.49 644.63,11.11"/>
    </edge>
    <edge id=":12107495912_0" function="internal">
        <lane id=":12107495912_0_0" index="0" allow="pedestrian delivery bicycle" speed="4.92" length="4.77" shape="55.42,182.18 54.13,182.68 53.03,182.68 52.11,182.18 51.37,181.18"/>
    </edge>
    <edge id=":12107495912_1" function="internal">
        <lane id=":12107495912_1_0" index="0" allow="pedestrian delivery bicycle" speed="5.56" length="9.50" shape="55.42,182.18 47.06,186.70"/>
    </edge>
    <edge id=":12107495912_2" function="internal">
        <lane id=":12107495912_2_0" index="0" allow="pedestrian delivery bicycle" speed="5.56" length="9.63" shape="55.42,182.18 53.14,183.81 51.89,185.67 51.64,187.78 52.41,190.12"/>
    </edge>
    <edge id=":12107495912_3" function="internal">
        <lane id=":12107495912_3_0" index="0" allow="pedestrian delivery bicycle" speed="3.65" length="4.67" shape="55.42,182.18 54.74,183.46 54.77,184.35 55.50,184.86 56.94,185.00"/>
    </edge>
    <edge id=":12107495912_4" function="internal">
        <lane id=":12107495912_4_0" index="0" allow="pedestrian delivery bicycle" speed="4.87" length="4.55" shape="55.26,188.65 54.94,187.62 55.12,186.67 55.79,185.79 56.94,185.00"/>
    </edge>
    <edge id=":12107495912_5" function="internal">
        <lane id=":12107495912_5_0" index="0" allow="pedestrian delivery bicycle" speed="5.56" length="8.42" shape="55.26,188.65 51.37,181.18"/>
    </edge>
    <edge id=":12107495912_6" function="internal">
        <lane id=":12107495912_6_0" index="0" allow="pedestrian delivery bicycle" speed="5.56" length="9.63" shape="55.26,188.65 53.77,186.66 51.91,185.67 49.68,185.68 47.06,186.70"/>
    </edge>
    <edge id=":12107495912_7" function="internal">
        <lane id=":12107495912_7_0" index="0" allow="pedestrian delivery bicycle" speed="3.65" length="4.67" shape="55.26,188.65 53.99,187.95 53.10,187.97 52.57,188.69 52.41,190.12"/>
    </edge>
    <edge id=":12107495912_8" function="internal">
        <lane id=":12107495912_8_0" index="0" allow="pedestrian delivery bicycle" speed="4.77" length="4.42" shape="48.58,189.51 49.85,189.00 50.91,188.92 51.77,189.30 52.41,190.12"/>
    </edge>
    <edge id=":12107495912_9" function="internal">
        <lane id=":12107495912_9_0" index="0" allow="pedestrian delivery bicycle" speed="5.56" length="9.50" shape="48.58,189.51 56.94,185.00"/>
    </edge>
    <edge id=":12107495912_10" function="internal">
        <lane id=":12107495912_10_0" index="0" allow="pedestrian delivery bicycle" speed="5.56" length="9.99" shape="48.58,189.51 50.84,187.87 52.06,185.93 52.24,183.70 51.37,181.18"/>
    </edge>
    <edge id=":12107495912_11" function="internal">
        <lane id=":12107495912_11_0" index="0" allow="pedestrian delivery bicycle" speed="3.65" length="4.67" shape="48.58,189.51 49.25,188.24 49.23,187.35 48.49,186.83 47.06,186.70"/>
    </edge>
    <edge id=":12107495912_12" function="internal">
        <lane id=":12107495912_12_0" index="0" allow="pedestrian delivery bicycle" speed="5.01" length="4.88" shape="48.53,182.66 48.93,183.86 48.82,184.93 48.20,185.88 47.06,186.70"/>
    </edge>
    <edge id=":12107495912_13" function="internal">
        <lane id=":12107495912_13_0" index="0" allow="pedestrian delivery bicycle" speed="5.56" length="8.42" shape="48.53,182.66 52.41,190.12"/>
    </edge>
    <edge id=":12107495912_14" function="internal">
        <lane id=":12107495912_14_0" index="0" allow="pedestrian delivery bicycle" speed="5.56" length="9.98" shape="48.53,182.66 50.11,184.82 52.03,185.93 54.31,185.99 56.94,185.00"/>
    </edge>
    <edge id=":12107495912_15" function="internal">
        <lane id=":12107495912_15_0" index="0" allow="pedestrian delivery bicycle" speed="3.65" length="4.67" shape="48.53,182.66 49.80,183.35 50.69,183.34 51.22,182.61 51.37,181.18"/>
    </edge>
    <edge id=":12107495913_0" function="internal">
        <lane id=":12107495913_0_0" index="0" allow="pedestrian delivery bicycle" speed="5.02" length="5.02" shape="63.84,157.70 62.55,158.18 61.42,158.12 60.45,157.53 59.65,156.40"/>
    </edge>
    <edge id=":12107495913_1" function="internal">
        <lane id=":12107495913_1_0" index="0" allow="pedestrian delivery bicycle" speed="5.56" length="9.53" shape="63.84,157.70 55.45,162.23"/>
    </edge>
    <edge id=":12107495913_2" function="internal">
        <lane id=":12107495913_2_0" index="0" allow="pedestrian delivery bicycle" speed="5.56" length="9.83" shape="63.84,157.70 61.57,159.34 60.32,161.24 60.10,163.41 60.91,165.85"/>
    </edge>
    <edge id=":12107495913_3" function="internal">
        <lane id=":12107495913_3_0" index="0" allow="pedestrian delivery bicycle" speed="3.65" length="4.67" shape="63.84,157.70 63.16,158.97 63.19,159.87 63.93,160.38 65.36,160.52"/>
    </edge>
    <edge id=":12107495913_4" function="internal">
        <lane id=":12107495913_4_0" index="0" allow="pedestrian delivery bicycle" speed="4.97" length="4.75" shape="63.76,164.40 63.40,163.27 63.55,162.24 64.21,161.33 65.36,160.52"/>
    </edge>
    <edge id=":12107495913_5" function="internal">
        <lane id=":12107495913_5_0" index="0" allow="pedestrian delivery bicycle" speed="5.56" length="8.99" shape="63.76,164.40 59.65,156.40"/>
    </edge>
    <edge id=":12107495913_6" function="internal">
        <lane id=":12107495913_6_0" index="0" allow="pedestrian delivery bicycle" speed="5.56" length="9.83" shape="63.76,164.40 62.24,162.31 60.35,161.25 58.08,161.22 55.45,162.23"/>
    </edge>
    <edge id=":12107495913_7" function="internal">
        <lane id=":12107495913_7_0" index="0" allow="pedestrian delivery bicycle" speed="3.65" length="4.67" shape="63.76,164.40 62.50,163.69 61.60,163.70 61.07,164.42 60.91,165.85"/>
    </edge>
    <edge id=":12107495913_8" function="internal">
        <lane id=":12107495913_8_0" index="0" allow="pedestrian delivery bicycle" speed="4.84" length="4.59" shape="56.97,165.05 58.25,164.54 59.34,164.50 60.22,164.94 60.91,165.85"/>
    </edge>
    <edge id=":12107495913_9" function="internal">
        <lane id=":12107495913_9_0" index="0" allow="pedestrian delivery bicycle" speed="5.56" length="9.53" shape="56.97,165.05 65.36,160.52"/>
    </edge>
    <edge id=":12107495913_10" function="internal">
        <lane id=":12107495913_10_0" index="0" allow="pedestrian delivery bicycle" speed="5.56" length="10.27" shape="56.97,165.05 59.23,163.38 60.43,161.38 60.57,159.05 59.65,156.40"/>
    </edge>
    <edge id=":12107495913_11" function="internal">
        <lane id=":12107495913_11_0" index="0" allow="pedestrian delivery bicycle" speed="3.65" length="4.67" shape="56.97,165.05 57.65,163.77 57.62,162.88 56.89,162.36 55.45,162.23"/>
    </edge>
    <edge id=":12107495913_12" function="internal">
        <lane id=":12107495913_12_0" index="0" allow="pedestrian delivery bicycle" speed="5.15" length="5.19" shape="56.81,157.87 57.27,159.21 57.20,160.38 56.59,161.39 55.45,162.23"/>
    </edge>
    <edge id=":12107495913_13" function="internal">
        <lane id=":12107495913_13_0" index="0" allow="pedestrian delivery bicycle" speed="5.56" length="8.98" shape="56.81,157.87 60.91,165.85"/>
    </edge>
    <edge id=":12107495913_14" function="internal">
        <lane id=":12107495913_14_0" index="0" allow="pedestrian delivery bicycle" speed="5.56" length="10.26" shape="56.81,157.87 58.44,160.17 60.41,161.37 62.72,161.49 65.36,160.52"/>
    </edge>
    <edge id=":12107495913_15" function="internal">
        <lane id=":12107495913_15_0" index="0" allow="pedestrian delivery bicycle" speed="3.65" length="4.67" shape="56.81,157.87 58.07,158.57 58.96,158.56 59.49,157.84 59.65,156.40"/>
    </edge>
    <edge id=":12107495916_0" function="internal">
        <lane id=":12107495916_0_0" index="0" allow="pedestrian delivery bicycle" speed="4.77" length="4.42" shape="59.18,189.44 57.91,189.96 56.85,190.03 55.99,189.65 55.35,188.83"/>
    </edge>
    <edge id=":12107495916_1" function="internal">
        <lane id=":12107495916_1_0" index="0" allow="pedestrian delivery bicycle" speed="5.56" length="9.50" shape="59.18,189.44 50.82,193.94"/>
    </edge>
    <edge id=":12107495916_2" function="internal">
        <lane id=":12107495916_2_0" index="0" allow="pedestrian delivery bicycle" speed="5.56" length="9.72" shape="59.18,189.44 56.91,191.07 55.66,192.95 55.43,195.08 56.23,197.47"/>
    </edge>
    <edge id=":12107495916_3" function="internal">
        <lane id=":12107495916_3_0" index="0" allow="pedestrian delivery bicycle" speed="3.65" length="4.67" shape="59.18,189.44 58.51,190.71 58.53,191.61 59.26,192.12 60.70,192.26"/>
    </edge>
    <edge id=":12107495916_4" function="internal">
        <lane id=":12107495916_4_0" index="0" allow="pedestrian delivery bicycle" speed="4.90" length="4.62" shape="59.07,196.00 58.73,194.93 58.90,193.95 59.55,193.06 60.70,192.26"/>
    </edge>
    <edge id=":12107495916_5" function="internal">
        <lane id=":12107495916_5_0" index="0" allow="pedestrian delivery bicycle" speed="5.56" length="8.08" shape="59.07,196.00 55.35,188.83"/>
    </edge>
    <edge id=":12107495916_6" function="internal">
        <lane id=":12107495916_6_0" index="0" allow="pedestrian delivery bicycle" speed="5.56" length="9.72" shape="59.07,196.00 57.56,193.97 55.69,192.95 53.44,192.94 50.82,193.94"/>
    </edge>
    <edge id=":12107495916_7" function="internal">
        <lane id=":12107495916_7_0" index="0" allow="pedestrian delivery bicycle" speed="3.65" length="4.67" shape="59.07,196.00 57.80,195.30 56.91,195.31 56.38,196.04 56.23,197.47"/>
    </edge>
    <edge id=":12107495916_8" function="internal">
        <lane id=":12107495916_8_0" index="0" allow="pedestrian delivery bicycle" speed="4.81" length="4.51" shape="52.34,196.76 53.61,196.25 54.69,196.20 55.56,196.60 56.23,197.47"/>
    </edge>
    <edge id=":12107495916_9" function="internal">
        <lane id=":12107495916_9_0" index="0" allow="pedestrian delivery bicycle" speed="5.56" length="9.49" shape="52.34,196.76 60.70,192.26"/>
    </edge>
    <edge id=":12107495916_10" function="internal">
        <lane id=":12107495916_10_0" index="0" allow="pedestrian delivery bicycle" speed="5.56" length="9.63" shape="52.34,196.76 54.61,195.14 55.87,193.28 56.12,191.17 55.35,188.83"/>
    </edge>
    <edge id=":12107495916_11" function="internal">
        <lane id=":12107495916_11_0" index="0" allow="pedestrian delivery bicycle" speed="3.65" length="4.67" shape="52.34,196.76 53.02,195.49 52.99,194.59 52.26,194.08 50.82,193.94"/>
    </edge>
    <edge id=":12107495916_12" function="internal">
        <lane id=":12107495916_12_0" index="0" allow="pedestrian delivery bicycle" speed="4.87" length="4.53" shape="52.51,190.30 52.82,191.33 52.64,192.28 51.97,193.15 50.82,193.94"/>
    </edge>
    <edge id=":12107495916_13" function="internal">
        <lane id=":12107495916_13_0" index="0" allow="pedestrian delivery bicycle" speed="5.56" length="8.08" shape="52.51,190.30 56.23,197.47"/>
    </edge>
    <edge id=":12107495916_14" function="internal">
        <lane id=":12107495916_14_0" index="0" allow="pedestrian delivery bicycle" speed="5.56" length="9.63" shape="52.51,190.30 53.99,192.29 55.85,193.28 58.08,193.27 60.70,192.26"/>
    </edge>
    <edge id=":12107495916_15" function="internal">
        <lane id=":12107495916_15_0" index="0" allow="pedestrian delivery bicycle" speed="3.65" length="4.67" shape="52.51,190.30 53.77,191.00 54.66,190.99 55.19,190.26 55.35,188.83"/>
    </edge>
    <edge id=":12107495917_0" function="internal">
        <lane id=":12107495917_0_0" index="0" allow="pedestrian delivery bicycle" speed="4.77" length="4.43" shape="75.62,180.60 74.34,181.12 73.28,181.19 72.42,180.81 71.78,179.98"/>
    </edge>
    <edge id=":12107495917_1" function="internal">
        <lane id=":12107495917_1_0" index="0" allow="pedestrian delivery bicycle" speed="5.56" length="9.52" shape="75.62,180.60 67.23,185.11"/>
    </edge>
    <edge id=":12107495917_2" function="internal">
        <lane id=":12107495917_2_0" index="0" allow="pedestrian delivery bicycle" speed="5.56" length="9.72" shape="75.62,180.60 73.34,182.23 72.08,184.11 71.84,186.25 72.63,188.63"/>
    </edge>
    <edge id=":12107495917_3" function="internal">
        <lane id=":12107495917_3_0" index="0" allow="pedestrian delivery bicycle" speed="3.65" length="4.67" shape="75.62,180.60 74.94,181.88 74.97,182.77 75.70,183.28 77.13,183.42"/>
    </edge>
    <edge id=":12107495917_4" function="internal">
        <lane id=":12107495917_4_0" index="0" allow="pedestrian delivery bicycle" speed="4.92" length="4.64" shape="75.47,187.17 75.14,186.10 75.31,185.11 75.98,184.22 77.13,183.42"/>
    </edge>
    <edge id=":12107495917_5" function="internal">
        <lane id=":12107495917_5_0" index="0" allow="pedestrian delivery bicycle" speed="5.56" length="8.08" shape="75.47,187.17 71.78,179.98"/>
    </edge>
    <edge id=":12107495917_6" function="internal">
        <lane id=":12107495917_6_0" index="0" allow="pedestrian delivery bicycle" speed="5.56" length="9.71" shape="75.47,187.17 73.98,185.13 72.10,184.12 69.86,184.11 67.23,185.11"/>
    </edge>
    <edge id=":12107495917_7" function="internal">
        <lane id=":12107495917_7_0" index="0" allow="pedestrian delivery bicycle" speed="3.65" length="4.67" shape="75.47,187.17 74.21,186.47 73.32,186.48 72.79,187.20 72.63,188.63"/>
    </edge>
    <edge id=":12107495917_8" function="internal">
        <lane id=":12107495917_8_0" index="0" allow="pedestrian delivery bicycle" speed="4.80" length="4.49" shape="68.75,187.93 70.02,187.42 71.09,187.37 71.96,187.77 72.63,188.63"/>
    </edge>
    <edge id=":12107495917_9" function="internal">
        <lane id=":12107495917_9_0" index="0" allow="pedestrian delivery bicycle" speed="5.56" length="9.52" shape="68.75,187.93 77.13,183.42"/>
    </edge>
    <edge id=":12107495917_10" function="internal">
        <lane id=":12107495917_10_0" index="0" allow="pedestrian delivery bicycle" speed="5.56" length="9.66" shape="68.75,187.93 71.03,186.31 72.29,184.45 72.54,182.33 71.78,179.98"/>
    </edge>
    <edge id=":12107495917_11" function="internal">
        <lane id=":12107495917_11_0" index="0" allow="pedestrian delivery bicycle" speed="3.65" length="4.67" shape="68.75,187.93 69.43,186.66 69.40,185.77 68.67,185.25 67.23,185.11"/>
    </edge>
    <edge id=":12107495917_12" function="internal">
        <lane id=":12107495917_12_0" index="0" allow="pedestrian delivery bicycle" speed="4.89" length="4.58" shape="68.93,181.44 69.24,182.48 69.06,183.44 68.39,184.32 67.23,185.11"/>
    </edge>
    <edge id=":12107495917_13" function="internal">
        <lane id=":12107495917_13_0" index="0" allow="pedestrian delivery bicycle" speed="5.56" length="8.09" shape="68.93,181.44 72.63,188.63"/>
    </edge>
    <edge id=":12107495917_14" function="internal">
        <lane id=":12107495917_14_0" index="0" allow="pedestrian delivery bicycle" speed="5.56" length="9.66" shape="68.93,181.44 70.41,183.44 72.27,184.44 74.51,184.43 77.13,183.42"/>
    </edge>
    <edge id=":12107495917_15" function="internal">
        <lane id=":12107495917_15_0" index="0" allow="pedestrian delivery bicycle" speed="3.65" length="4.67" shape="68.93,181.44 70.19,182.14 71.08,182.13 71.61,181.41 71.78,179.98"/>
    </edge>
    <edge id=":12107495922_0" function="internal">
        <lane id=":12107495922_0_0" index="0" allow="pedestrian delivery bicycle" speed="4.79" length="4.45" shape="99.18,167.91 97.91,168.43 96.84,168.49 95.98,168.11 95.32,167.27"/>
    </edge>
    <edge id=":12107495922_1" function="internal">
        <lane id=":12107495922_1_0" index="0" allow="pedestrian delivery bicycle" speed="5.56" length="9.48" shape="99.18,167.91 90.84,172.41"/>
    </edge>
    <edge id=":12107495922_2" function="internal">
        <lane id=":12107495922_2_0" index="0" allow="pedestrian delivery bicycle" speed="5.56" length="9.70" shape="99.18,167.91 96.91,169.54 95.67,171.42 95.44,173.54 96.24,175.93"/>
    </edge>
    <edge id=":12107495922_3" function="internal">
        <lane id=":12107495922_3_0" index="0" allow="pedestrian delivery bicycle" speed="3.65" length="4.67" shape="99.18,167.91 98.50,169.19 98.53,170.08 99.26,170.60 100.70,170.73"/>
    </edge>
    <edge id=":12107495922_4" function="internal">
        <lane id=":12107495922_4_0" index="0" allow="pedestrian delivery bicycle" speed="4.89" length="4.59" shape="99.08,174.44 98.74,173.38 98.90,172.41 99.56,171.53 100.70,170.73"/>
    </edge>
    <edge id=":12107495922_5" function="internal">
        <lane id=":12107495922_5_0" index="0" allow="pedestrian delivery bicycle" speed="5.56" length="8.10" shape="99.08,174.44 95.32,167.27"/>
    </edge>
    <edge id=":12107495922_6" function="internal">
        <lane id=":12107495922_6_0" index="0" allow="pedestrian delivery bicycle" speed="5.56" length="9.70" shape="99.08,174.44 97.57,172.42 95.70,171.41 93.45,171.40 90.84,172.41"/>
    </edge>
    <edge id=":12107495922_7" function="internal">
        <lane id=":12107495922_7_0" index="0" allow="pedestrian delivery bicycle" speed="3.65" length="4.67" shape="99.08,174.44 97.81,173.75 96.92,173.77 96.39,174.49 96.24,175.93"/>
    </edge>
    <edge id=":12107495922_8" function="internal">
        <lane id=":12107495922_8_0" index="0" allow="pedestrian delivery bicycle" speed="4.81" length="4.50" shape="92.35,175.23 93.63,174.72 94.70,174.66 95.57,175.07 96.24,175.93"/>
    </edge>
    <edge id=":12107495922_9" function="internal">
        <lane id=":12107495922_9_0" index="0" allow="pedestrian delivery bicycle" speed="5.56" length="9.48" shape="92.35,175.23 100.70,170.73"/>
    </edge>
    <edge id=":12107495922_10" function="internal">
        <lane id=":12107495922_10_0" index="0" allow="pedestrian delivery bicycle" speed="5.56" length="9.65" shape="92.35,175.23 94.63,173.60 95.88,171.74 96.11,169.63 95.32,167.27"/>
    </edge>
    <edge id=":12107495922_11" function="internal">
        <lane id=":12107495922_11_0" index="0" allow="pedestrian delivery bicycle" speed="3.65" length="4.67" shape="92.35,175.23 93.03,173.95 93.00,173.06 92.27,172.54 90.84,172.41"/>
    </edge>
    <edge id=":12107495922_12" function="internal">
        <lane id=":12107495922_12_0" index="0" allow="pedestrian delivery bicycle" speed="4.86" length="4.54" shape="92.49,168.76 92.81,169.79 92.64,170.75 91.98,171.62 90.84,172.41"/>
    </edge>
    <edge id=":12107495922_13" function="internal">
        <lane id=":12107495922_13_0" index="0" allow="pedestrian delivery bicycle" speed="5.56" length="8.09" shape="92.49,168.76 96.24,175.93"/>
    </edge>
    <edge id=":12107495922_14" function="internal">
        <lane id=":12107495922_14_0" index="0" allow="pedestrian delivery bicycle" speed="5.56" length="9.64" shape="92.49,168.76 93.98,170.75 95.85,171.75 98.09,171.74 100.70,170.73"/>
    </edge>
    <edge id=":12107495922_15" function="internal">
        <lane id=":12107495922_15_0" index="0" allow="pedestrian delivery bicycle" speed="3.65" length="4.67" shape="92.49,168.76 93.75,169.45 94.65,169.43 95.17,168.71 95.32,167.27"/>
    </edge>
    <edge id=":12107495924_0" function="internal">
        <lane id=":12107495924_0_0" index="0" allow="pedestrian delivery bicycle" speed="5.04" length="5.00" shape="137.00,240.45 135.71,240.92 134.58,240.86 133.61,240.28 132.80,239.17"/>
    </edge>
    <edge id=":12107495924_1" function="internal">
        <lane id=":12107495924_1_0" index="0" allow="pedestrian delivery bicycle" speed="5.56" length="7.76" shape="137.00,240.45 134.66,241.92 133.19,243.36 132.61,244.77 132.90,246.15"/>
    </edge>
    <edge id=":12107495924_2" function="internal">
        <lane id=":12107495924_2_0" index="0" allow="pedestrian delivery bicycle" speed="5.56" length="6.20" shape="135.72,244.64 132.80,239.17"/>
    </edge>
    <edge id=":12107495924_3" function="internal">
        <lane id=":12107495924_3_0" index="0" allow="pedestrian delivery bicycle" speed="3.65" length="4.67" shape="135.72,244.64 134.45,243.96 133.56,243.99 133.04,244.71 132.90,246.15"/>
    </edge>
    <edge id=":12107495924_4" function="internal">
        <lane id=":12107495924_4_0" index="0" allow="pedestrian delivery bicycle" speed="5.04" length="5.00" shape="128.70,244.87 129.99,244.40 131.12,244.46 132.09,245.04 132.90,246.15"/>
    </edge>
    <edge id=":12107495924_5" function="internal">
        <lane id=":12107495924_5_0" index="0" allow="pedestrian delivery bicycle" speed="5.56" length="7.76" shape="128.70,244.87 131.04,243.40 132.51,241.96 133.09,240.55 132.80,239.17"/>
    </edge>
    <edge id=":12107495924_6" function="internal">
        <lane id=":12107495924_6_0" index="0" allow="pedestrian delivery bicycle" speed="5.56" length="6.20" shape="129.98,240.68 132.90,246.15"/>
    </edge>
    <edge id=":12107495924_7" function="internal">
        <lane id=":12107495924_7_0" index="0" allow="pedestrian delivery bicycle" speed="3.65" length="4.67" shape="129.98,240.68 131.25,241.36 132.14,241.33 132.66,240.61 132.80,239.17"/>
    </edge>
    <edge id=":12107495925_0" function="internal">
        <lane id=":12107495925_0_0" index="0" allow="pedestrian delivery bicycle" speed="3.65" length="4.67" shape="124.67,176.47 125.35,175.19 125.32,174.30 124.58,173.78 123.15,173.65"/>
    </edge>
    <edge id=":12107495926_0" function="internal">
        <lane id=":12107495926_0_0" index="0" allow="pedestrian delivery bicycle" speed="5.06" length="5.03" shape="152.42,275.95 151.94,274.65 152.00,273.51 152.58,272.54 153.68,271.72"/>
    </edge>
    <edge id=":12107495926_1" function="internal">
        <lane id=":12107495926_1_0" index="0" allow="pedestrian delivery bicycle" speed="5.56" length="6.23" shape="152.42,275.95 149.49,270.45"/>
    </edge>
    <edge id=":12107495926_2" function="internal">
        <lane id=":12107495926_2_0" index="0" allow="pedestrian delivery bicycle" speed="3.65" length="4.67" shape="152.42,275.95 151.15,275.26 150.25,275.29 149.73,276.01 149.59,277.45"/>
    </edge>
    <edge id=":12107495926_3" function="internal">
        <lane id=":12107495926_3_0" index="0" allow="pedestrian delivery bicycle" speed="5.04" length="5.00" shape="145.39,276.18 146.68,275.71 147.81,275.76 148.78,276.34 149.59,277.45"/>
    </edge>
    <edge id=":12107495926_4" function="internal">
        <lane id=":12107495926_4_0" index="0" allow="pedestrian delivery bicycle" speed="5.56" length="9.41" shape="145.39,276.18 153.68,271.72"/>
    </edge>
    <edge id=":12107495926_5" function="internal">
        <lane id=":12107495926_5_0" index="0" allow="pedestrian delivery bicycle" speed="5.56" length="7.77" shape="145.39,276.18 147.73,274.70 149.19,273.25 149.78,271.84 149.49,270.45"/>
    </edge>
    <edge id=":12107495926_6" function="internal">
        <lane id=":12107495926_6_0" index="0" allow="pedestrian delivery bicycle" speed="5.56" length="6.22" shape="146.66,271.96 149.59,277.45"/>
    </edge>
    <edge id=":12107495926_7" function="internal">
        <lane id=":12107495926_7_0" index="0" allow="pedestrian delivery bicycle" speed="5.56" length="7.76" shape="146.66,271.96 147.65,272.98 149.15,273.27 151.16,272.86 153.68,271.72"/>
    </edge>
    <edge id=":12107495926_8" function="internal">
        <lane id=":12107495926_8_0" index="0" allow="pedestrian delivery bicycle" speed="3.65" length="4.67" shape="146.66,271.96 147.93,272.64 148.83,272.62 149.35,271.89 149.49,270.45"/>
    </edge>
    <edge id=":12107495927_0" function="internal">
        <lane id=":12107495927_0_0" index="0" allow="pedestrian delivery bicycle" speed="5.56" length="9.39" shape="43.27,158.99 34.98,163.41"/>
    </edge>
    <edge id=":12107495927_1" function="internal">
        <lane id=":12107495927_1_0" index="0" allow="pedestrian delivery bicycle" speed="5.56" length="9.75" shape="43.27,158.99 41.02,160.60 39.81,162.49 39.61,164.65 40.43,167.08"/>
    </edge>
    <edge id=":12107495927_2" function="internal">
        <lane id=":12107495927_2_0" index="0" allow="pedestrian delivery bicycle" speed="3.65" length="4.67" shape="43.27,158.99 42.58,160.26 42.61,161.16 43.34,161.67 44.77,161.81"/>
    </edge>
    <edge id=":12107495927_3" function="internal">
        <lane id=":12107495927_3_0" index="0" allow="pedestrian delivery bicycle" speed="4.91" length="4.64" shape="43.27,165.61 42.91,164.49 43.04,163.49 43.66,162.60 44.77,161.81"/>
    </edge>
    <edge id=":12107495927_4" function="internal">
        <lane id=":12107495927_4_0" index="0" allow="pedestrian delivery bicycle" speed="5.56" length="9.81" shape="43.27,165.61 41.75,163.53 39.86,162.47 37.60,162.43 34.98,163.41"/>
    </edge>
    <edge id=":12107495927_5" function="internal">
        <lane id=":12107495927_5_0" index="0" allow="pedestrian delivery bicycle" speed="3.65" length="4.67" shape="43.27,165.61 42.01,164.91 41.12,164.93 40.59,165.65 40.43,167.08"/>
    </edge>
    <edge id=":12107495927_6" function="internal">
        <lane id=":12107495927_6_0" index="0" allow="pedestrian delivery bicycle" speed="4.86" length="4.61" shape="36.48,166.24 37.76,165.74 38.85,165.72 39.74,166.16 40.43,167.08"/>
    </edge>
    <edge id=":12107495927_7" function="internal">
        <lane id=":12107495927_7_0" index="0" allow="pedestrian delivery bicycle" speed="5.56" length="9.40" shape="36.48,166.24 44.77,161.81"/>
    </edge>
    <edge id=":12107495927_8" function="internal">
        <lane id=":12107495927_8_0" index="0" allow="pedestrian delivery bicycle" speed="3.65" length="4.67" shape="36.48,166.24 37.17,164.97 37.14,164.07 36.41,163.56 34.98,163.41"/>
    </edge>
    <edge id=":12107495930_0" function="internal">
        <lane id=":12107495930_0_0" index="0" allow="pedestrian delivery bicycle" speed="5.56" length="6.20" shape="301.91,212.59 307.38,209.67"/>
    </edge>
    <edge id=":12107495930_1" function="internal">
        <lane id=":12107495930_1_0" index="0" allow="pedestrian delivery bicycle" speed="5.13" length="5.06" shape="303.09,208.37 303.96,209.48 304.97,210.06 306.11,210.12 307.38,209.67"/>
    </edge>
    <edge id=":12107495931_0" function="internal">